Version 4.1
SHEET 1 3664 1728
WIRE 1184 -496 -128 -496
WIRE 1072 -480 -112 -480
WIRE -368 -448 -432 -448
WIRE 32 -448 -368 -448
WIRE 32 -416 32 -448
WIRE -432 -400 -432 -448
WIRE -112 -352 -112 -480
WIRE -64 -352 -112 -352
WIRE 192 -320 128 -320
WIRE -128 -288 -128 -496
WIRE -64 -288 -128 -288
WIRE -432 -240 -432 -320
WIRE -432 -240 -480 -240
WIRE 192 -240 192 -320
WIRE -480 -224 -480 -240
WIRE -64 -224 -192 -224
WIRE -432 -208 -432 -240
WIRE 192 -208 192 -240
WIRE -192 -192 -192 -224
WIRE 1072 -160 1072 -480
WIRE 1024 -144 848 -144
WIRE 192 -96 192 -128
WIRE 1024 -96 992 -96
WIRE -432 -80 -432 -128
WIRE -400 -80 -432 -80
WIRE -192 -80 -192 -112
WIRE -192 -80 -400 -80
WIRE 32 -80 32 -112
WIRE 32 -80 -192 -80
WIRE 336 -32 -256 -32
WIRE 624 -32 336 -32
WIRE 1072 -32 1072 -80
WIRE 240 0 240 -64
WIRE -256 32 -256 -32
WIRE 624 64 624 -32
WIRE 848 64 848 -144
WIRE 880 64 848 64
WIRE 992 64 992 -96
WIRE 992 64 960 64
WIRE 1184 64 1184 -496
WIRE 1184 64 992 64
WIRE 336 80 336 -32
WIRE 592 80 560 80
WIRE 48 96 -80 96
WIRE 192 96 192 -96
WIRE 304 96 192 96
WIRE 720 96 656 96
WIRE 848 96 848 64
WIRE 848 96 800 96
WIRE -80 112 -80 96
WIRE 592 112 368 112
WIRE 1184 112 1184 64
WIRE 1312 112 1184 112
WIRE 48 128 48 96
WIRE 304 128 48 128
WIRE 1312 128 1312 112
WIRE -256 160 -256 112
WIRE -256 160 -336 160
WIRE 1072 160 1008 160
WIRE 1184 160 1184 112
WIRE 1184 160 1152 160
WIRE -336 208 -336 160
WIRE 448 208 416 208
WIRE 560 208 560 80
WIRE 560 208 528 208
WIRE 656 208 560 208
WIRE 688 208 656 208
WIRE 816 208 768 208
WIRE 848 208 848 96
WIRE 848 208 816 208
WIRE 1008 208 1008 160
WIRE -80 240 -80 192
WIRE 1312 240 1312 208
WIRE -256 256 -256 160
WIRE -80 256 -80 240
WIRE 416 256 416 208
WIRE 240 272 240 64
WIRE 656 320 656 208
WIRE 704 320 656 320
WIRE 816 320 816 208
WIRE 816 320 768 320
WIRE 1008 336 1008 288
WIRE -80 368 -80 336
WIRE 240 384 240 352
WIRE -256 400 -256 336
WIRE -208 400 -256 400
WIRE 336 400 336 144
WIRE 336 400 -208 400
WIRE 624 400 624 128
WIRE 624 400 336 400
FLAG -336 208 0
FLAG -256 -32 p3p5
FLAG 1312 112 Vout
FLAG 1008 336 0
FLAG -480 -224 0
FLAG -208 400 m3p5
FLAG -368 -448 p2p5
FLAG -400 -80 m2p5
FLAG 1312 240 0
FLAG 48 96 Setpoint
FLAG 1072 -32 0
FLAG 416 256 0
FLAG -80 368 0
FLAG -80 240 Vset
FLAG 192 -240 Vr
FLAG 192 -96 Vf
SYMBOL res 864 48 M90
WINDOW 0 0 56 VBottom 2
WINDOW 3 32 56 VTop 2
SYMATTR InstName R3
SYMATTR Value 0.5
SYMBOL voltage -256 16 R0
WINDOW 123 0 0 Left 0
WINDOW 39 0 0 Left 0
SYMATTR InstName V1
SYMATTR Value 3.5
SYMBOL voltage 1008 192 R0
WINDOW 123 0 0 Left 0
WINDOW 39 0 0 Left 0
SYMATTR InstName V2
SYMATTR Value 0
SYMBOL res 784 192 R90
WINDOW 0 0 56 VBottom 2
WINDOW 3 32 56 VTop 2
SYMATTR InstName R2
SYMATTR Value 750
SYMBOL res 544 192 R90
WINDOW 0 0 56 VBottom 2
WINDOW 3 32 56 VTop 2
SYMATTR InstName R1
SYMATTR Value 750
SYMBOL Opamps\\ADA4661-2 336 48 R0
SYMATTR InstName U2
SYMBOL voltage -256 240 R0
WINDOW 123 0 0 Left 0
WINDOW 39 0 0 Left 0
SYMATTR InstName V3
SYMATTR Value 3.5
SYMBOL voltage -432 -416 R0
WINDOW 123 0 0 Left 0
WINDOW 39 0 0 Left 0
SYMATTR InstName V5
SYMATTR Value 2.5
SYMBOL ADG719 32 -272 R0
SYMATTR InstName U4
SYMBOL voltage -192 -208 R0
WINDOW 123 0 0 Left 0
WINDOW 39 0 0 Left 0
SYMATTR InstName Vmode
SYMATTR Value 0
SYMBOL voltage -80 240 R0
WINDOW 123 24 124 Left 2
WINDOW 39 0 0 Left 0
SYMATTR InstName Vset
SYMATTR Value 0
SYMBOL res 1168 144 R90
WINDOW 0 0 56 VBottom 2
WINDOW 3 32 56 VTop 2
SYMATTR InstName RL
SYMATTR Value 50
SYMBOL voltage -432 -224 R0
WINDOW 123 0 0 Left 0
WINDOW 39 0 0 Left 0
SYMATTR InstName V6
SYMATTR Value 2.5
SYMBOL e 1072 -176 R0
SYMATTR InstName E1
SYMATTR Value 20
SYMBOL res 816 80 R90
WINDOW 0 0 56 VBottom 2
WINDOW 3 32 56 VTop 2
SYMATTR InstName R4
SYMATTR Value 4.03
SYMBOL voltage -80 96 R0
WINDOW 123 0 0 Left 0
WINDOW 39 0 0 Left 0
SYMATTR InstName Vos
SYMATTR Value 0
SYMBOL OpAmps\\AD8018 624 32 R0
WINDOW 3 4 117 Left 2
SYMATTR InstName U1
SYMBOL voltage 192 -112 R180
WINDOW 0 24 96 Left 2
WINDOW 3 24 16 Left 2
WINDOW 123 -124 51 Left 2
WINDOW 39 0 0 Left 0
SYMATTR InstName V4
SYMATTR Value ""
SYMATTR Value2 AC 1m
SYMBOL res 224 256 R0
SYMATTR InstName Rc
SYMATTR Value {Rc}
SYMBOL cap 224 0 R0
SYMATTR InstName Cc
SYMATTR Value {Cc}
SYMBOL cap 768 304 R90
WINDOW 0 0 32 VBottom 2
WINDOW 3 32 32 VTop 2
SYMATTR InstName Cf
SYMATTR Value {Cf}
SYMBOL ind 1296 112 R0
SYMATTR InstName L
SYMATTR Value {L}
SYMATTR SpiceLine Rser=1m
TEXT -616 -32 Left 2 !.ac dec 10 20 100Meg
TEXT -576 72 Left 2 ;.savebias tran25
TEXT -560 128 Left 2 ;.op
TEXT -616 0 Left 2 ;.tran 0 2m 0 0.1u startup
TEXT -368 -360 Left 2 ;For Voltage out:\n     mode Vmode = 0\nFor Current out:\n     mode Vmode = 5
TEXT 784 -200 Left 2 ;Ideal current to voltage\nconverter
TEXT -576 104 Left 2 ;.loadbias tran25
TEXT -472 488 Left 2 !; ===== Sweep mode =====\n.param L=10m\n.step param L list 100u 200u 500u 1m 2m 5m 10m 20m 50m 100m
TEXT -472 584 Left 2 !.param Rc=10k Cc=39p Cf=500p
